sisyphean-power-and-light/network/results/scenarios/ev_adoption_2030/violations.csv
bus_name,voltage_pu,violation
bus_sub-001,0.9468,under
bus_fdr-0001-head,0.9465,under
bus_jct-fdr-0001-001,0.9461,under
bus_fuse-xfmr-000001,0.7529,under
bus_xfmr-000001,0.7528,under
bus_fuse-xfmr-000002,0.7529,under
bus_xfmr-000002,0.7529,under
bus_fuse-xfmr-000003,0.7529,under
bus_xfmr-000003,0.7529,under
bus_fuse-xfmr-000004,0.8984,under
bus_xfmr-000004,0.8984,under
bus_fuse-xfmr-000005,0.8984,under
bus_xfmr-000005,0.8984,under
bus_fuse-xfmr-000006,0.8984,under
bus_xfmr-000006,0.8984,under
bus_fuse-xfmr-000007,0.8984,under
bus_xfmr-000007,0.8982,under
bus_fuse-xfmr-000008,0.7529,under
bus_xfmr-000008,0.7528,under
bus_fuse-xfmr-000009,0.9461,under
bus_xfmr-000009,0.9461,under
bus_fuse-xfmr-000010,0.8984,under
bus_xfmr-000010,0.8984,under
bus_fuse-xfmr-000011,0.7529,under
bus_xfmr-000011,0.7528,under
bus_fuse-xfmr-000012,0.7529,under
bus_xfmr-000012,0.7529,under
bus_fuse-xfmr-000013,0.8984,under
bus_xfmr-000013,0.8984,under
bus_fuse-xfmr-000014,0.8986,under
bus_xfmr-000014,0.8998,under
bus_fuse-xfmr-000015,0.7529,under
bus_xfmr-000015,0.7531,under
bus_fuse-xfmr-000016,0.8984,under
bus_xfmr-000016,0.8982,under
bus_fuse-xfmr-000017,0.753,under
bus_xfmr-000017,0.7536,under
bus_fuse-xfmr-000018,0.7529,under
bus_xfmr-000018,0.7529,under
bus_fuse-xfmr-000019,0.7529,under
bus_xfmr-000019,0.7528,under
bus_fuse-xfmr-000020,0.8984,under
bus_xfmr-000020,0.8985,under
bus_fuse-xfmr-000021,0.8984,under
bus_xfmr-000021,0.8983,under
bus_fuse-xfmr-000022,0.9461,under
bus_xfmr-000022,0.946,under
bus_fuse-xfmr-000023,0.7529,under
bus_xfmr-000023,0.7527,under
bus_fuse-xfmr-000024,0.7529,under
bus_xfmr-000024,0.7528,under
bus_fuse-xfmr-000025,0.9461,under
bus_xfmr-000025,0.9461,under
bus_fuse-xfmr-000026,0.8984,under
bus_xfmr-000026,0.8982,under
bus_fuse-xfmr-000027,0.8984,under
bus_xfmr-000027,0.8985,under
bus_fuse-xfmr-000028,0.7529,under
bus_xfmr-000028,0.7527,under
bus_fuse-xfmr-000029,0.8983,under
bus_xfmr-000029,0.8976,under
bus_fuse-xfmr-000030,0.7529,under
bus_xfmr-000030,0.7529,under
bus_fuse-xfmr-000031,0.9461,under
bus_xfmr-000031,0.9461,under
bus_fuse-xfmr-000032,0.8984,under
bus_xfmr-000032,0.8982,under
bus_fuse-xfmr-000033,0.7528,under
bus_xfmr-000033,0.7521,under
bus_fuse-xfmr-000034,0.7527,under
bus_xfmr-000034,0.7519,under
bus_fuse-xfmr-000035,0.7529,under
bus_xfmr-000035,0.7528,under
bus_fuse-xfmr-000036,0.9461,under
bus_xfmr-000036,0.9462,under
bus_fuse-xfmr-000037,0.7527,under
bus_xfmr-000037,0.7519,under
bus_fuse-xfmr-000038,0.9461,under
bus_xfmr-000038,0.9461,under
bus_fuse-xfmr-000039,0.8983,under
bus_xfmr-000039,0.898,under
bus_fuse-xfmr-000040,0.7528,under
bus_xfmr-000040,0.7523,under
bus_fuse-xfmr-000041,0.7529,under
bus_xfmr-000041,0.7527,under
bus_fuse-xfmr-000042,0.7528,under
bus_xfmr-000042,0.7525,under
bus_fuse-xfmr-000043,0.8984,under
bus_xfmr-000043,0.8982,under
bus_fuse-xfmr-000044,0.7529,under
bus_xfmr-000044,0.7527,under
bus_fuse-xfmr-000045,0.8984,under
bus_xfmr-000045,0.8984,under
bus_jct-fdr-0001-002,0.9348,under
bus_fuse-xfmr-000046,0.9348,under
bus_xfmr-000046,0.9349,under
bus_fuse-xfmr-000047,0.9348,under
bus_xfmr-000047,0.9348,under
bus_fuse-xfmr-000048,0.7145,under
bus_xfmr-000048,0.7144,under
bus_fuse-xfmr-000049,0.7145,under
bus_xfmr-000049,0.7145,under
bus_fuse-xfmr-000050,0.9348,under
bus_xfmr-000050,0.9348,under
bus_fuse-xfmr-000051,0.8796,under
bus_xfmr-000051,0.8796,under
bus_fuse-xfmr-000052,0.8796,under
bus_xfmr-000052,0.8795,under
bus_fuse-xfmr-000053,0.8796,under
bus_xfmr-000053,0.8796,under
bus_fuse-xfmr-000054,0.8796,under
bus_xfmr-000054,0.8796,under
bus_fuse-xfmr-000055,0.8795,under
bus_xfmr-000055,0.8794,under
bus_fuse-xfmr-000056,0.9348,under
bus_xfmr-000056,0.9348,under
bus_fuse-xfmr-000057,0.8796,under
bus_xfmr-000057,0.8796,under
bus_fuse-xfmr-000058,0.8796,under
bus_xfmr-000058,0.8796,under
bus_fuse-xfmr-000059,0.7145,under
bus_xfmr-000059,0.7145,under
bus_fuse-xfmr-000060,0.7145,under
bus_xfmr-000060,0.7145,under
bus_fuse-xfmr-000061,0.7145,under
bus_xfmr-000061,0.7143,under
bus_fuse-xfmr-000062,0.9349,under
bus_xfmr-000062,0.9349,under
bus_fuse-xfmr-000063,0.9348,under
bus_xfmr-000063,0.9348,under
bus_fuse-xfmr-000064,0.8795,under
bus_xfmr-000064,0.8794,under
bus_fuse-xfmr-000065,0.7145,under
bus_xfmr-000065,0.7143,under
bus_fuse-xfmr-000066,0.7144,under
bus_xfmr-000066,0.7137,under
bus_fuse-xfmr-000067,0.7145,under
bus_xfmr-000067,0.7143,under
bus_fuse-xfmr-000068,0.8795,under
bus_xfmr-000068,0.8793,under
bus_fuse-xfmr-000069,0.7145,under
bus_xfmr-000069,0.7145,under
bus_fuse-xfmr-000070,0.7145,under
bus_xfmr-000070,0.7145,under
bus_fuse-xfmr-000071,0.9348,under
bus_xfmr-000071,0.9348,under
bus_fuse-xfmr-000072,0.7145,under
bus_xfmr-000072,0.7144,under
bus_fuse-xfmr-000073,0.8796,under
bus_xfmr-000073,0.8796,under
bus_fuse-xfmr-000074,0.8795,under
bus_xfmr-000074,0.8793,under
bus_fuse-xfmr-000075,0.9349,under
bus_xfmr-000075,0.9349,under
bus_fuse-xfmr-000076,0.8795,under
bus_xfmr-000076,0.8792,under
bus_fuse-xfmr-000077,0.7142,under
bus_xfmr-000077,0.7127,under
bus_fuse-xfmr-000078,0.7145,under
bus_xfmr-000078,0.7146,under
bus_fuse-xfmr-000079,0.7168,under
bus_xfmr-000079,0.7302,under
bus_fuse-xfmr-000080,0.8795,under
bus_xfmr-000080,0.8792,under
bus_fuse-xfmr-000081,0.7138,under
bus_xfmr-000081,0.7098,under
bus_fuse-xfmr-000082,0.7143,under
bus_xfmr-000082,0.713,under
bus_fuse-xfmr-000083,0.8809,under
bus_xfmr-000083,0.8883,under
bus_fuse-xfmr-000084,0.9347,under
bus_xfmr-000084,0.9342,under
bus_fuse-xfmr-000085,0.7145,under
bus_xfmr-000085,0.7145,under
bus_fuse-xfmr-000086,0.8795,under
bus_xfmr-000086,0.8791,under
bus_fuse-xfmr-000087,0.8795,under
bus_xfmr-000087,0.8791,under
bus_fuse-xfmr-000088,0.7145,under
bus_xfmr-000088,0.7144,under
bus_fuse-xfmr-000089,0.8796,under
bus_xfmr-000089,0.8799,under
bus_fuse-xfmr-000090,0.9348,under
bus_xfmr-000090,0.9344,under
bus_jct-fdr-0001-003,0.9254,under
bus_fuse-xfmr-000091,0.8637,under
bus_xfmr-000091,0.8637,under
bus_fuse-xfmr-000092,0.9254,under
bus_xfmr-000092,0.9254,under
bus_fuse-xfmr-000093,0.8637,under
bus_xfmr-000093,0.8637,under
bus_fuse-xfmr-000094,0.6821,under
bus_xfmr-000094,0.682,under
bus_fuse-xfmr-000095,0.8637,under
bus_xfmr-000095,0.8637,under
bus_fuse-xfmr-000096,0.6821,under
bus_xfmr-000096,0.6823,under
bus_fuse-xfmr-000097,0.9254,under
bus_xfmr-000097,0.9254,under
bus_fuse-xfmr-000098,0.682,under
bus_xfmr-000098,0.6819,under
bus_fuse-xfmr-000099,0.9254,under
bus_xfmr-000099,0.9254,under
bus_fuse-xfmr-000100,0.6821,under
bus_xfmr-000100,0.682,under
bus_fuse-xfmr-000101,0.682,under
bus_xfmr-000101,0.6819,under
bus_fuse-xfmr-000102,0.6821,under
bus_xfmr-000102,0.6821,under
bus_fuse-xfmr-000103,0.8637,under
bus_xfmr-000103,0.8637,under
bus_fuse-xfmr-000104,0.9254,under
bus_xfmr-000104,0.9253,under
bus_fuse-xfmr-000105,0.6821,under
bus_xfmr-000105,0.6821,under
bus_fuse-xfmr-000106,0.6821,under
bus_xfmr-000106,0.6821,under
bus_fuse-xfmr-000107,0.8637,under
bus_xfmr-000107,0.8637,under
bus_fuse-xfmr-000108,0.9254,under
bus_xfmr-000108,0.9254,under
bus_fuse-xfmr-000109,0.9254,under
bus_xfmr-000109,0.9252,under
bus_fuse-xfmr-000110,0.6821,under
bus_xfmr-000110,0.6821,under
bus_fuse-xfmr-000111,0.8638,under
bus_xfmr-000111,0.864,under
bus_fuse-xfmr-000112,0.6819,under
bus_xfmr-000112,0.6812,under
bus_fuse-xfmr-000113,0.8637,under
bus_xfmr-000113,0.8637,under
bus_fuse-xfmr-000114,0.682,under
bus_xfmr-000114,0.6819,under
bus_fuse-xfmr-000115,0.6821,under
bus_xfmr-000115,0.6825,under
bus_fuse-xfmr-000116,0.8637,under
bus_xfmr-000116,0.8638,under
bus_fuse-xfmr-000117,0.682,under
bus_xfmr-000117,0.6814,under
bus_fuse-xfmr-000118,0.8637,under
bus_xfmr-000118,0.8637,under
bus_fuse-xfmr-000119,0.8637,under
bus_xfmr-000119,0.8636,under
bus_fuse-xfmr-000120,0.9254,under
bus_xfmr-000120,0.9252,under
bus_fuse-xfmr-000121,0.6821,under
bus_xfmr-000121,0.682,under
bus_fuse-xfmr-000122,0.6819,under
bus_xfmr-000122,0.6807,under
bus_fuse-xfmr-000123,0.682,under
bus_xfmr-000123,0.6816,under
bus_fuse-xfmr-000124,0.8637,under
bus_xfmr-000124,0.8637,under
bus_fuse-xfmr-000125,0.8637,under
bus_xfmr-000125,0.8633,under
bus_fuse-xfmr-000126,0.6819,under
bus_xfmr-000126,0.6809,under
bus_fuse-xfmr-000127,0.8637,under
bus_xfmr-000127,0.8637,under
bus_fuse-xfmr-000128,0.8637,under
bus_xfmr-000128,0.8637,under
bus_fuse-xfmr-000129,0.6821,under
bus_xfmr-000129,0.6822,under
bus_fuse-xfmr-000130,0.8636,under
bus_xfmr-000130,0.8629,under
bus_fuse-xfmr-000131,0.6821,under
bus_xfmr-000131,0.6825,under
bus_fuse-xfmr-000132,0.8637,under
bus_xfmr-000132,0.8635,under
bus_fuse-xfmr-000133,0.6822,under
bus_xfmr-000133,0.6832,under
bus_fuse-xfmr-000134,0.8637,under
bus_xfmr-000134,0.8636,under
bus_fuse-xfmr-000135,0.8637,under
bus_xfmr-000135,0.8638,under
bus_jct-fdr-0001-004,0.9172,under
bus_fuse-xfmr-000136,0.9172,under
bus_xfmr-000136,0.9172,under
bus_fuse-xfmr-000137,0.85,under
bus_xfmr-000137,0.85,under
bus_fuse-xfmr-000138,0.85,under
bus_xfmr-000138,0.85,under
bus_fuse-xfmr-000139,0.654,under
bus_xfmr-000139,0.6539,under
bus_fuse-xfmr-000140,0.654,under
bus_xfmr-000140,0.6541,under
bus_fuse-xfmr-000141,0.85,under
bus_xfmr-000141,0.85,under
bus_fuse-xfmr-000142,0.9172,under
bus_xfmr-000142,0.9172,under
bus_fuse-xfmr-000143,0.85,under
bus_xfmr-000143,0.85,under
bus_fuse-xfmr-000144,0.85,under
bus_xfmr-000144,0.8501,under
bus_fuse-xfmr-000145,0.9172,under
bus_xfmr-000145,0.9172,under
bus_fuse-xfmr-000146,0.85,under
bus_xfmr-000146,0.85,under
bus_fuse-xfmr-000147,0.85,under
bus_xfmr-000147,0.85,under
bus_fuse-xfmr-000148,0.85,under
bus_xfmr-000148,0.8501,under
bus_fuse-xfmr-000149,0.654,under
bus_xfmr-000149,0.654,under
bus_fuse-xfmr-000150,0.654,under
bus_xfmr-000150,0.654,under
bus_fuse-xfmr-000151,0.85,under
bus_xfmr-000151,0.85,under
bus_fuse-xfmr-000152,0.6539,under
bus_xfmr-000152,0.6536,under
bus_fuse-xfmr-000153,0.6539,under
bus_xfmr-000153,0.6537,under
bus_fuse-xfmr-000154,0.85,under
bus_xfmr-000154,0.8499,under
bus_fuse-xfmr-000155,0.85,under
bus_xfmr-000155,0.85,under
bus_fuse-xfmr-000156,0.654,under
bus_xfmr-000156,0.6541,under
bus_fuse-xfmr-000157,0.9172,under
bus_xfmr-000157,0.9172,under
bus_fuse-xfmr-000158,0.8503,under
bus_xfmr-000158,0.8521,under
bus_fuse-xfmr-000159,0.9172,under
bus_xfmr-000159,0.9171,under
bus_fuse-xfmr-000160,0.654,under
bus_xfmr-000160,0.6542,under
bus_fuse-xfmr-000161,0.9172,under
bus_xfmr-000161,0.9171,under
bus_fuse-xfmr-000162,0.9172,under
bus_xfmr-000162,0.9172,under
bus_fuse-xfmr-000163,0.85,under
bus_xfmr-000163,0.8497,under
bus_fuse-xfmr-000164,0.6539,under
bus_xfmr-000164,0.6533,under
bus_fuse-xfmr-000165,0.654,under
bus_xfmr-000165,0.6542,under
bus_fuse-xfmr-000166,0.85,under
bus_xfmr-000166,0.85,under
bus_fuse-xfmr-000167,0.6539,under
bus_xfmr-000167,0.6534,under
bus_fuse-xfmr-000168,0.85,under
bus_xfmr-000168,0.8497,under
bus_fuse-xfmr-000169,0.9172,under
bus_xfmr-000169,0.9172,under
bus_fuse-xfmr-000170,0.654,under
bus_xfmr-000170,0.654,under
bus_fuse-xfmr-000171,0.85,under
bus_xfmr-000171,0.8501,under
bus_fuse-xfmr-000172,0.654,under
bus_xfmr-000172,0.6542,under
bus_fuse-xfmr-000173,0.85,under
bus_xfmr-000173,0.8498,under
bus_fuse-xfmr-000174,0.6538,under
bus_xfmr-000174,0.6525,under
bus_fuse-xfmr-000175,0.6539,under
bus_xfmr-000175,0.6535,under
bus_fuse-xfmr-000176,0.8499,under
bus_xfmr-000176,0.8491,under
bus_fuse-xfmr-000177,0.654,under
bus_xfmr-000177,0.6538,under
bus_fuse-xfmr-000178,0.85,under
bus_xfmr-000178,0.8498,under
bus_fuse-xfmr-000179,0.8499,under
bus_xfmr-000179,0.8495,under
bus_fuse-xfmr-000180,0.8499,under
bus_xfmr-000180,0.8494,under
bus_jct-fdr-0001-005,0.9106,under
bus_fuse-xfmr-000181,0.9106,under
bus_xfmr-000181,0.9106,under
bus_fuse-xfmr-000182,0.8392,under
bus_xfmr-000182,0.8392,under
bus_fuse-xfmr-000183,0.632,under
bus_xfmr-000183,0.632,under
bus_fuse-xfmr-000184,0.8392,under
bus_xfmr-000184,0.8392,under
bus_fuse-xfmr-000185,0.8392,under
bus_xfmr-000185,0.8392,under
bus_fuse-xfmr-000186,0.632,under
bus_xfmr-000186,0.6319,under
bus_fuse-xfmr-000187,0.8392,under
bus_xfmr-000187,0.8393,under
bus_fuse-xfmr-000188,0.9106,under
bus_xfmr-000188,0.9106,under
bus_fuse-xfmr-000189,0.9106,under
bus_xfmr-000189,0.9106,under
bus_fuse-xfmr-000190,0.8392,under
bus_xfmr-000190,0.8392,under
bus_fuse-xfmr-000191,0.9106,under
bus_xfmr-000191,0.9106,under
bus_fuse-xfmr-000192,0.8392,under
bus_xfmr-000192,0.8392,under
bus_fuse-xfmr-000193,0.632,under
bus_xfmr-000193,0.632,under
bus_fuse-xfmr-000194,0.632,under
bus_xfmr-000194,0.6321,under
bus_fuse-xfmr-000195,0.8392,under
bus_xfmr-000195,0.8391,under
bus_fuse-xfmr-000196,0.8392,under
bus_xfmr-000196,0.8393,under
bus_fuse-xfmr-000197,0.632,under
bus_xfmr-000197,0.6319,under
bus_fuse-xfmr-000198,0.8392,under
bus_xfmr-000198,0.8392,under
bus_fuse-xfmr-000199,0.632,under
bus_xfmr-000199,0.6323,under
bus_fuse-xfmr-000200,0.632,under
bus_xfmr-000200,0.632,under
bus_fuse-xfmr-000201,0.8392,under
bus_xfmr-000201,0.8391,under
bus_fuse-xfmr-000202,0.632,under
bus_xfmr-000202,0.6321,under
bus_fuse-xfmr-000203,0.8392,under
bus_xfmr-000203,0.8391,under
bus_fuse-xfmr-000204,0.632,under
bus_xfmr-000204,0.6323,under
bus_fuse-xfmr-000205,0.632,under
bus_xfmr-000205,0.632,under
bus_fuse-xfmr-000206,0.632,under
bus_xfmr-000206,0.632,under
bus_fuse-xfmr-000207,0.8392,under
bus_xfmr-000207,0.8391,under
bus_fuse-xfmr-000208,0.632,under
bus_xfmr-000208,0.6321,under
bus_fuse-xfmr-000209,0.632,under
bus_xfmr-000209,0.6319,under
bus_fuse-xfmr-000210,0.8392,under
bus_xfmr-000210,0.8393,under
bus_fuse-xfmr-000211,0.8392,under
bus_xfmr-000211,0.839,under
bus_fuse-xfmr-000212,0.632,under
bus_xfmr-000212,0.632,under
bus_fuse-xfmr-000213,0.6319,under
bus_xfmr-000213,0.6312,under
bus_fuse-xfmr-000214,0.9105,under
bus_xfmr-000214,0.9105,under
bus_fuse-xfmr-000215,0.632,under
bus_xfmr-000215,0.632,under
bus_fuse-xfmr-000216,0.8392,under
bus_xfmr-000216,0.839,under
bus_fuse-xfmr-000217,0.8392,under
bus_xfmr-000217,0.839,under
bus_fuse-xfmr-000218,0.9106,under
bus_xfmr-000218,0.9105,under
bus_fuse-xfmr-000219,0.8391,under
bus_xfmr-000219,0.8386,under
bus_fuse-xfmr-000220,0.632,under
bus_xfmr-000220,0.6319,under
bus_fuse-xfmr-000221,0.839,under
bus_xfmr-000221,0.8375,under
bus_fuse-xfmr-000222,0.8392,under
bus_xfmr-000222,0.8389,under
bus_fuse-xfmr-000223,0.9105,under
bus_xfmr-000223,0.9104,under
bus_fuse-xfmr-000224,0.6319,under
bus_xfmr-000224,0.6314,under
bus_fuse-xfmr-000225,0.9106,under
bus_xfmr-000225,0.9107,under
bus_jct-fdr-0001-006,0.9047,under
bus_fuse-xfmr-000226,0.6133,under
bus_xfmr-000226,0.6133,under
bus_fuse-xfmr-000227,0.6133,under
bus_xfmr-000227,0.6133,under
bus_fuse-xfmr-000228,0.6133,under
bus_xfmr-000228,0.6133,under
bus_fuse-xfmr-000229,0.6133,under
bus_xfmr-000229,0.6132,under
bus_fuse-xfmr-000230,0.8297,under
bus_xfmr-000230,0.829,under
bus_fuse-xfmr-000231,0.6133,under
bus_xfmr-000231,0.6132,under
bus_fuse-xfmr-000232,0.6133,under
bus_xfmr-000232,0.6133,under
bus_fuse-xfmr-000233,0.6133,under
bus_xfmr-000233,0.6132,under
bus_fuse-xfmr-000234,0.6133,under
bus_xfmr-000234,0.6132,under
bus_fuse-xfmr-000235,0.6133,under
bus_xfmr-000235,0.6132,under
bus_fuse-xfmr-000236,0.9046,under
bus_xfmr-000236,0.9042,under
bus_fuse-xfmr-000237,0.8298,under
bus_xfmr-000237,0.8298,under
bus_fuse-xfmr-000238,0.8298,under
bus_xfmr-000238,0.8298,under
bus_fuse-xfmr-000239,0.8298,under
bus_xfmr-000239,0.8297,under
bus_fuse-xfmr-000240,0.6132,under
bus_xfmr-000240,0.6126,under
bus_fuse-xfmr-000241,0.6132,under
bus_xfmr-000241,0.6127,under
bus_fuse-xfmr-000242,0.8298,under
bus_xfmr-000242,0.8298,under
bus_fuse-xfmr-000243,0.9046,under
bus_xfmr-000243,0.9045,under
bus_fuse-xfmr-000244,0.6133,under
bus_xfmr-000244,0.6132,under
bus_fuse-xfmr-000245,0.8298,under
bus_xfmr-000245,0.8298,under
bus_fuse-xfmr-000246,0.6133,under
bus_xfmr-000246,0.6132,under
bus_fuse-xfmr-000247,0.8302,under
bus_xfmr-000247,0.8325,under
bus_fuse-xfmr-000248,0.9046,under
bus_xfmr-000248,0.9046,under
bus_fuse-xfmr-000249,0.6132,under
bus_xfmr-000249,0.6127,under
bus_fuse-xfmr-000250,0.6132,under
bus_xfmr-000250,0.6131,under
bus_fuse-xfmr-000251,0.8298,under
bus_xfmr-000251,0.8297,under
bus_fuse-xfmr-000252,0.6132,under
bus_xfmr-000252,0.6128,under
bus_fuse-xfmr-000253,0.8301,under
bus_xfmr-000253,0.8316,under
bus_fuse-xfmr-000254,0.9047,under
bus_xfmr-000254,0.9046,under
bus_fuse-xfmr-000255,0.8298,under
bus_xfmr-000255,0.8298,under
bus_fuse-xfmr-000256,0.6133,under
bus_xfmr-000256,0.6132,under
bus_fuse-xfmr-000257,0.613,under
bus_xfmr-000257,0.6116,under
bus_fuse-xfmr-000258,0.6132,under
bus_xfmr-000258,0.613,under
bus_fuse-xfmr-000259,0.6133,under
bus_xfmr-000259,0.6132,under
bus_fuse-xfmr-000260,0.8297,under
bus_xfmr-000260,0.8292,under
bus_fuse-xfmr-000261,0.6132,under
bus_xfmr-000261,0.6131,under
bus_fuse-xfmr-000262,0.8298,under
bus_xfmr-000262,0.8298,under
bus_fuse-xfmr-000263,0.9046,under
bus_xfmr-000263,0.9046,under
bus_fuse-xfmr-000264,0.9047,under
bus_xfmr-000264,0.9046,under
bus_fuse-xfmr-000265,0.9047,under
bus_xfmr-000265,0.9047,under
bus_fuse-xfmr-000266,0.8298,under
bus_xfmr-000266,0.8296,under
bus_fuse-xfmr-000267,0.8296,under
bus_xfmr-000267,0.8286,under
bus_fuse-xfmr-000268,0.9046,under
bus_xfmr-000268,0.9043,under
bus_fuse-xfmr-000269,0.6133,under
bus_xfmr-000269,0.6132,under
bus_fuse-xfmr-000270,0.8298,under
bus_xfmr-000270,0.8294,under
bus_jct-fdr-0001-007,0.9016,under
bus_fuse-xfmr-000271,0.825,under
bus_xfmr-000271,0.825,under
bus_fuse-xfmr-000272,0.825,under
bus_xfmr-000272,0.825,under
bus_fuse-xfmr-000273,0.825,under
bus_xfmr-000273,0.825,under
bus_fuse-xfmr-000274,0.9016,under
bus_xfmr-000274,0.9016,under
bus_fuse-xfmr-000275,0.6037,under
bus_xfmr-000275,0.6037,under
bus_fuse-xfmr-000276,0.825,under
bus_xfmr-000276,0.825,under
bus_fuse-xfmr-000277,0.825,under
bus_xfmr-000277,0.825,under
bus_fuse-xfmr-000278,0.825,under
bus_xfmr-000278,0.825,under
bus_fuse-xfmr-000279,0.825,under
bus_xfmr-000279,0.8249,under
bus_fuse-xfmr-000280,0.825,under
bus_xfmr-000280,0.825,under
bus_fuse-xfmr-000281,0.6037,under
bus_xfmr-000281,0.6037,under
bus_fuse-xfmr-000282,0.825,under
bus_xfmr-000282,0.8249,under
bus_fuse-xfmr-000283,0.6037,under
bus_xfmr-000283,0.6036,under
bus_fuse-xfmr-000284,0.6037,under
bus_xfmr-000284,0.6036,under
bus_fuse-xfmr-000285,0.9016,under
bus_xfmr-000285,0.9016,under
bus_fuse-xfmr-000286,0.9016,under
bus_xfmr-000286,0.9016,under
bus_fuse-xfmr-000287,0.825,under
bus_xfmr-000287,0.825,under
bus_fuse-xfmr-000288,0.6037,under
bus_xfmr-000288,0.6036,under
bus_fuse-xfmr-000289,0.8249,under
bus_xfmr-000289,0.8247,under
bus_fuse-xfmr-000290,0.6037,under
bus_xfmr-000290,0.6039,under
bus_fuse-xfmr-000291,0.825,under
bus_xfmr-000291,0.825,under
bus_fuse-xfmr-000292,0.6037,under
bus_xfmr-000292,0.6036,under
bus_fuse-xfmr-000293,0.825,under
bus_xfmr-000293,0.8251,under
bus_fuse-xfmr-000294,0.6036,under
bus_xfmr-000294,0.6033,under
bus_fuse-xfmr-000295,0.8249,under
bus_xfmr-000295,0.8249,under
bus_fuse-xfmr-000296,0.6037,under
bus_xfmr-000296,0.6034,under
bus_fuse-xfmr-000297,0.9016,under
bus_xfmr-000297,0.9014,under
bus_fuse-xfmr-000298,0.825,under
bus_xfmr-000298,0.8249,under
bus_fuse-xfmr-000299,0.9017,under
bus_xfmr-000299,0.9019,under
bus_fuse-xfmr-000300,0.9016,under
bus_xfmr-000300,0.9016,under
bus_fuse-xfmr-000301,0.9016,under
bus_xfmr-000301,0.9016,under
bus_fuse-xfmr-000302,0.825,under
bus_xfmr-000302,0.8249,under
bus_fuse-xfmr-000303,0.6037,under
bus_xfmr-000303,0.6037,under
bus_fuse-xfmr-000304,0.6037,under
bus_xfmr-000304,0.6037,under
bus_fuse-xfmr-000305,0.6036,under
bus_xfmr-000305,0.6032,under
bus_fuse-xfmr-000306,0.9016,under
bus_xfmr-000306,0.9016,under
bus_fuse-xfmr-000307,0.9016,under
bus_xfmr-000307,0.9014,under
bus_fuse-xfmr-000308,0.6037,under
bus_xfmr-000308,0.6037,under
bus_fuse-xfmr-000309,0.6037,under
bus_xfmr-000309,0.6037,under
bus_fuse-xfmr-000310,0.825,under
bus_xfmr-000310,0.825,under
bus_fuse-xfmr-000311,0.825,under
bus_xfmr-000311,0.8255,under
bus_fuse-xfmr-000312,0.6037,under
bus_xfmr-000312,0.6038,under
bus_fuse-xfmr-000313,0.6037,under
bus_xfmr-000313,0.604,under
bus_fuse-xfmr-000314,0.825,under
bus_xfmr-000314,0.8249,under
bus_fuse-xfmr-000315,0.6036,under
bus_xfmr-000315,0.6032,under
bus_jct-fdr-0001-008,0.8999,under
bus_fuse-xfmr-000316,0.8221,under
bus_xfmr-000316,0.8221,under
bus_fuse-xfmr-000317,0.8999,under
bus_xfmr-000317,0.8998,under
bus_fuse-xfmr-000318,0.5981,under
bus_xfmr-000318,0.5981,under
bus_fuse-xfmr-000319,0.8221,under
bus_xfmr-000319,0.8221,under
bus_fuse-xfmr-000320,0.5981,under
bus_xfmr-000320,0.5981,under
bus_fuse-xfmr-000321,0.5981,under
bus_xfmr-000321,0.5981,under
bus_fuse-xfmr-000322,0.5981,under
bus_xfmr-000322,0.5981,under
bus_fuse-xfmr-000323,0.5981,under
bus_xfmr-000323,0.5981,under
bus_fuse-xfmr-000324,0.8221,under
bus_xfmr-000324,0.8221,under
bus_fuse-xfmr-000325,0.8998,under
bus_xfmr-000325,0.8998,under
bus_fuse-xfmr-000326,0.8221,under
bus_xfmr-000326,0.8221,under
bus_fuse-xfmr-000327,0.5981,under
bus_xfmr-000327,0.598,under
bus_fuse-xfmr-000328,0.5981,under
bus_xfmr-000328,0.5979,under
bus_fuse-xfmr-000329,0.8221,under
bus_xfmr-000329,0.822,under
bus_fuse-xfmr-000330,0.5981,under
bus_xfmr-000330,0.5981,under
bus_fuse-xfmr-000331,0.5985,under
bus_xfmr-000331,0.6007,under
bus_fuse-xfmr-000332,0.8221,under
bus_xfmr-000332,0.822,under
bus_fuse-xfmr-000333,0.8221,under
bus_xfmr-000333,0.8221,under
bus_fuse-xfmr-000334,0.8999,under
bus_xfmr-000334,0.8999,under
bus_fuse-xfmr-000335,0.5982,under
bus_xfmr-000335,0.5983,under
bus_fuse-xfmr-000336,0.5981,under
bus_xfmr-000336,0.5978,under
bus_fuse-xfmr-000337,0.8221,under
bus_xfmr-000337,0.8222,under
bus_fuse-xfmr-000338,0.8221,under
bus_xfmr-000338,0.822,under
bus_fuse-xfmr-000339,0.8221,under
bus_xfmr-000339,0.8221,under
bus_fuse-xfmr-000340,0.5981,under
bus_xfmr-000340,0.598,under
bus_fuse-xfmr-000341,0.5982,under
bus_xfmr-000341,0.5985,under
bus_fuse-xfmr-000342,0.8221,under
bus_xfmr-000342,0.8221,under
bus_fuse-xfmr-000343,0.8221,under
bus_xfmr-000343,0.8221,under
bus_fuse-xfmr-000344,0.8221,under
bus_xfmr-000344,0.8221,under
bus_fuse-xfmr-000345,0.5981,under
bus_xfmr-000345,0.598,under
bus_fuse-xfmr-000346,0.8221,under
bus_xfmr-000346,0.8222,under
bus_fuse-xfmr-000347,0.598,under
bus_xfmr-000347,0.5971,under
bus_fuse-xfmr-000348,0.5981,under
bus_xfmr-000348,0.5977,under
bus_fuse-xfmr-000349,0.598,under
bus_xfmr-000349,0.5973,under
bus_fuse-xfmr-000350,0.5981,under
bus_xfmr-000350,0.598,under
bus_fuse-xfmr-000351,0.5981,under
bus_xfmr-000351,0.5981,under
bus_fuse-xfmr-000352,0.5981,under
bus_xfmr-000352,0.5978,under
bus_fuse-xfmr-000353,0.5979,under
bus_xfmr-000353,0.5966,under
bus_fuse-xfmr-000354,0.8221,under
bus_xfmr-000354,0.822,under
bus_fuse-xfmr-000355,0.8998,under
bus_xfmr-000355,0.8997,under
bus_fuse-xfmr-000356,0.5982,under
bus_xfmr-000356,0.5982,under
bus_fuse-xfmr-000357,0.8999,under
bus_xfmr-000357,0.8999,under
bus_fuse-xfmr-000358,0.8221,under
bus_xfmr-000358,0.8221,under
bus_fuse-xfmr-000359,0.598,under
bus_xfmr-000359,0.5973,under
bus_fuse-xfmr-000360,0.8221,under
bus_xfmr-000360,0.8219,under
bus_jct-fdr-0001-009,0.8998,under
bus_fuse-xfmr-000361,0.822,under
bus_xfmr-000361,0.822,under
bus_fuse-xfmr-000362,0.822,under
bus_xfmr-000362,0.822,under
bus_fuse-xfmr-000363,0.822,under
bus_xfmr-000363,0.822,under
bus_fuse-xfmr-000364,0.822,under
bus_xfmr-000364,0.822,under
bus_fdr-0001-tail,0.8998,under
bus_fdr-0002-head,0.9465,under
bus_jct-fdr-0002-001,0.9458,under
bus_fuse-xfmr-000365,0.7529,under
bus_xfmr-000365,0.7529,under
bus_fuse-xfmr-000366,0.9458,under
bus_xfmr-000366,0.9458,under
bus_fuse-xfmr-000367,0.8983,under
bus_xfmr-000367,0.8984,under
bus_fuse-xfmr-000368,0.9458,under
bus_xfmr-000368,0.9458,under
bus_fuse-xfmr-000369,0.9458,under
bus_xfmr-000369,0.9458,under
bus_fuse-xfmr-000370,0.7529,under
bus_xfmr-000370,0.7529,under
bus_fuse-xfmr-000371,0.8983,under
bus_xfmr-000371,0.8983,under
bus_fuse-xfmr-000372,0.9458,under
bus_xfmr-000372,0.9458,under
bus_fuse-xfmr-000373,0.7528,under
bus_xfmr-000373,0.7526,under
bus_fuse-xfmr-000374,0.8983,under
bus_xfmr-000374,0.8978,under
bus_fuse-xfmr-000375,0.7528,under
bus_xfmr-000375,0.7527,under
bus_fuse-xfmr-000376,0.8983,under
bus_xfmr-000376,0.8983,under
bus_fuse-xfmr-000377,0.7528,under
bus_xfmr-000377,0.7528,under
bus_fuse-xfmr-000378,0.7529,under
bus_xfmr-000378,0.7528,under
bus_fuse-xfmr-000379,0.8983,under
bus_xfmr-000379,0.8983,under
bus_fuse-xfmr-000380,0.7529,under
bus_xfmr-000380,0.753,under
bus_fuse-xfmr-000381,0.8983,under
bus_xfmr-000381,0.898,under
bus_fuse-xfmr-000382,0.8983,under
bus_xfmr-000382,0.8983,under
bus_fuse-xfmr-000383,0.8983,under
bus_xfmr-000383,0.8983,under
bus_jct-fdr-0002-002,0.9335,under
bus_fuse-xfmr-000384,0.7202,under
bus_xfmr-000384,0.7202,under
bus_fuse-xfmr-000385,0.8818,under
bus_xfmr-000385,0.8818,under
bus_fuse-xfmr-000386,0.8818,under
bus_xfmr-000386,0.8818,under
bus_fuse-xfmr-000387,0.7202,under
bus_xfmr-000387,0.7202,under
bus_fuse-xfmr-000388,0.7204,under
bus_xfmr-000388,0.7214,under
bus_fuse-xfmr-000389,0.8818,under
bus_xfmr-000389,0.8817,under
bus_fuse-xfmr-000390,0.7202,under
bus_xfmr-000390,0.7198,under
bus_fuse-xfmr-000391,0.9336,under
bus_xfmr-000391,0.9337,under
bus_fuse-xfmr-000392,0.8818,under
bus_xfmr-000392,0.8818,under
bus_fuse-xfmr-000393,0.7203,under
bus_xfmr-000393,0.7204,under
bus_fuse-xfmr-000394,0.7202,under
bus_xfmr-000394,0.7202,under
bus_fuse-xfmr-000395,0.7202,under
bus_xfmr-000395,0.7202,under
bus_fuse-xfmr-000396,0.7201,under
bus_xfmr-000396,0.7191,under
bus_fuse-xfmr-000397,0.7202,under
bus_xfmr-000397,0.7202,under
bus_fuse-xfmr-000398,0.7201,under
bus_xfmr-000398,0.7195,under
bus_fuse-xfmr-000399,0.7201,under
bus_xfmr-000399,0.7194,under
bus_fuse-xfmr-000400,0.7199,under
bus_xfmr-000400,0.7178,under
bus_fuse-xfmr-000401,0.8816,under
bus_xfmr-000401,0.8808,under
bus_fuse-xfmr-000402,0.9336,under
bus_xfmr-000402,0.9339,under
bus_jct-fdr-0002-003,0.9229,under
bus_fuse-xfmr-000403,0.692,under
bus_xfmr-000403,0.692,under
bus_fuse-xfmr-000404,0.692,under
bus_xfmr-000404,0.6919,under
bus_fuse-xfmr-000405,0.692,under
bus_xfmr-000405,0.692,under
bus_fuse-xfmr-000406,0.692,under
bus_xfmr-000406,0.6921,under
bus_fuse-xfmr-000407,0.8672,under
bus_xfmr-000407,0.8672,under
bus_fuse-xfmr-000408,0.6919,under
bus_xfmr-000408,0.6915,under
bus_fuse-xfmr-000409,0.8672,under
bus_xfmr-000409,0.8671,under
bus_fuse-xfmr-000410,0.692,under
bus_xfmr-000410,0.692,under
bus_fuse-xfmr-000411,0.8672,under
bus_xfmr-000411,0.8672,under
bus_fuse-xfmr-000412,0.9229,under
bus_xfmr-000412,0.9229,under
bus_fuse-xfmr-000413,0.8672,under
bus_xfmr-000413,0.8672,under
bus_fuse-xfmr-000414,0.8672,under
bus_xfmr-000414,0.8672,under
bus_fuse-xfmr-000415,0.8673,under
bus_xfmr-000415,0.8673,under
bus_fuse-xfmr-000416,0.8672,under
bus_xfmr-000416,0.8672,under
bus_fuse-xfmr-000417,0.8672,under
bus_xfmr-000417,0.8671,under
bus_fuse-xfmr-000418,0.9229,under
bus_xfmr-000418,0.9227,under
bus_fuse-xfmr-000419,0.8672,under
bus_xfmr-000419,0.867,under
bus_fuse-xfmr-000420,0.8672,under
bus_xfmr-000420,0.867,under
bus_fuse-xfmr-000421,0.692,under
bus_xfmr-000421,0.6917,under
bus_jct-fdr-0002-004,0.9135,under
bus_fuse-xfmr-000422,0.8544,under
bus_xfmr-000422,0.8544,under
bus_fuse-xfmr-000423,0.9135,under
bus_xfmr-000423,0.9135,under
bus_fuse-xfmr-000424,0.6671,under
bus_xfmr-000424,0.6668,under
bus_fuse-xfmr-000425,0.9135,under
bus_xfmr-000425,0.9135,under
bus_fuse-xfmr-000426,0.6671,under
bus_xfmr-000426,0.6671,under
bus_fuse-xfmr-000427,0.8544,under
bus_xfmr-000427,0.8544,under
bus_fuse-xfmr-000428,0.8542,under
bus_xfmr-000428,0.8532,under
bus_fuse-xfmr-000429,0.8544,under
bus_xfmr-000429,0.8544,under
bus_fuse-xfmr-000430,0.8544,under
bus_xfmr-000430,0.8544,under
bus_fuse-xfmr-000431,0.8544,under
bus_xfmr-000431,0.8545,under
bus_fuse-xfmr-000432,0.9135,under
bus_xfmr-000432,0.9133,under
bus_fuse-xfmr-000433,0.6671,under
bus_xfmr-000433,0.6667,under
bus_fuse-xfmr-000434,0.9135,under
bus_xfmr-000434,0.9136,under
bus_fuse-xfmr-000435,0.8544,under
bus_xfmr-000435,0.8542,under
bus_fuse-xfmr-000436,0.8544,under
bus_xfmr-000436,0.8543,under
bus_fuse-xfmr-000437,0.6681,under
bus_xfmr-000437,0.6731,under
bus_fuse-xfmr-000438,0.9132,under
bus_xfmr-000438,0.9113,under
bus_fuse-xfmr-000439,0.8544,under
bus_xfmr-000439,0.8543,under
bus_fuse-xfmr-000440,0.667,under
bus_xfmr-000440,0.6661,under
bus_jct-fdr-0002-005,0.9074,under
bus_fuse-xfmr-000441,0.651,under
bus_xfmr-000441,0.651,under
bus_fuse-xfmr-000442,0.8463,under
bus_xfmr-000442,0.8463,under
bus_fuse-xfmr-000443,0.8463,under
bus_xfmr-000443,0.8463,under
bus_fuse-xfmr-000444,0.651,under
bus_xfmr-000444,0.651,under
bus_fuse-xfmr-000445,0.651,under
bus_xfmr-000445,0.6509,under
bus_fuse-xfmr-000446,0.8462,under
bus_xfmr-000446,0.8461,under
bus_fuse-xfmr-000447,0.651,under
bus_xfmr-000447,0.6509,under
bus_fuse-xfmr-000448,0.651,under
bus_xfmr-000448,0.6509,under
bus_fuse-xfmr-000449,0.8463,under
bus_xfmr-000449,0.8461,under
bus_fuse-xfmr-000450,0.8463,under
bus_xfmr-000450,0.8464,under
bus_fuse-xfmr-000451,0.651,under
bus_xfmr-000451,0.651,under
bus_fuse-xfmr-000452,0.651,under
bus_xfmr-000452,0.6509,under
bus_fuse-xfmr-000453,0.9074,under
bus_xfmr-000453,0.9075,under
bus_fuse-xfmr-000454,0.8462,under
bus_xfmr-000454,0.846,under
bus_fuse-xfmr-000455,0.9074,under
bus_xfmr-000455,0.9073,under
bus_fuse-xfmr-000456,0.651,under
bus_xfmr-000456,0.651,under
bus_fuse-xfmr-000457,0.8463,under
bus_xfmr-000457,0.8462,under
bus_fuse-xfmr-000458,0.6511,under
bus_xfmr-000458,0.6517,under
bus_fuse-xfmr-000459,0.651,under
bus_xfmr-000459,0.6509,under
bus_jct-fdr-0002-006,0.902,under
bus_fuse-xfmr-000460,0.8389,under
bus_xfmr-000460,0.8389,under
bus_fuse-xfmr-000461,0.6365,under
bus_xfmr-000461,0.6365,under
bus_fuse-xfmr-000462,0.8389,under
bus_xfmr-000462,0.8389,under
bus_fuse-xfmr-000463,0.6364,under
bus_xfmr-000463,0.6359,under
bus_fuse-xfmr-000464,0.6365,under
bus_xfmr-000464,0.6365,under
bus_fuse-xfmr-000465,0.8389,under
bus_xfmr-000465,0.8389,under
bus_fuse-xfmr-000466,0.6364,under
bus_xfmr-000466,0.6358,under
bus_fuse-xfmr-000467,0.6364,under
bus_xfmr-000467,0.6355,under
bus_fuse-xfmr-000468,0.8389,under
bus_xfmr-000468,0.8388,under
bus_fuse-xfmr-000469,0.8389,under
bus_xfmr-000469,0.8388,under
bus_fuse-xfmr-000470,0.8389,under
bus_xfmr-000470,0.8389,under
bus_fuse-xfmr-000471,0.902,under
bus_xfmr-000471,0.902,under
bus_fuse-xfmr-000472,0.6365,under
bus_xfmr-000472,0.6366,under
bus_fuse-xfmr-000473,0.6365,under
bus_xfmr-000473,0.6361,under
bus_fuse-xfmr-000474,0.8389,under
bus_xfmr-000474,0.8387,under
bus_fuse-xfmr-000475,0.6365,under
bus_xfmr-000475,0.636,under
bus_fuse-xfmr-000476,0.6363,under
bus_xfmr-000476,0.6349,under
bus_fuse-xfmr-000477,0.8389,under
bus_xfmr-000477,0.8388,under
bus_fuse-xfmr-000478,0.8389,under
bus_xfmr-000478,0.8389,under
bus_jct-fdr-0002-007,0.9001,under
bus_fuse-xfmr-000479,0.8364,under
bus_xfmr-000479,0.8364,under
bus_fuse-xfmr-000480,0.6315,under
bus_xfmr-000480,0.6315,under
bus_fuse-xfmr-000481,0.9001,under
bus_xfmr-000481,0.9001,under
bus_fuse-xfmr-000482,0.6315,under
bus_xfmr-000482,0.6314,under
bus_fuse-xfmr-000483,0.6315,under
bus_xfmr-000483,0.6312,under
bus_fuse-xfmr-000484,0.8364,under
bus_xfmr-000484,0.8365,under
bus_fuse-xfmr-000485,0.8364,under
bus_xfmr-000485,0.8363,under
bus_fuse-xfmr-000486,0.8364,under
bus_xfmr-000486,0.8364,under
bus_fuse-xfmr-000487,0.6315,under
bus_xfmr-000487,0.6314,under
bus_fuse-xfmr-000488,0.8363,under
bus_xfmr-000488,0.8356,under
bus_fuse-xfmr-000489,0.8364,under
bus_xfmr-000489,0.8365,under
bus_fuse-xfmr-000490,0.8364,under
bus_xfmr-000490,0.8364,under
bus_fuse-xfmr-000491,0.8364,under
bus_xfmr-000001_sec,0.7364,under
bus_xfmr-000002_sec,0.747,under
bus_xfmr-000003_sec,0.7489,under
bus_xfmr-000004_sec,0.7463,under
bus_xfmr-000005_sec,0.751,under
bus_xfmr-000006_sec,0.2462,under
bus_xfmr-000007_sec,0.563,under
bus_xfmr-000008_sec,0.746,under
bus_xfmr-000009_sec,0.7482,under
bus_xfmr-000010_sec,0.7482,under
bus_xfmr-000011_sec,0.7472,under
bus_xfmr-000012_sec,0.7482,under
bus_xfmr-000013_sec,0.7577,under
bus_xfmr-000014_sec,0.7363,under
bus_xfmr-000015_sec,0.6624,under
bus_xfmr-000016_sec,0.7429,under
bus_xfmr-000017_sec,0.7552,under
bus_xfmr-000018_sec,0.7119,under
bus_xfmr-000019_sec,0.7459,under
bus_xfmr-000020_sec,0.7581,under
bus_xfmr-000021_sec,0.2441,under
bus_xfmr-000022_sec,0.7481,under
bus_xfmr-000023_sec,0.7454,under
bus_xfmr-000024_sec,0.7457,under
bus_xfmr-000025_sec,0.7533,under
bus_xfmr-000026_sec,0.7478,under
bus_xfmr-000027_sec,0.7521,under
bus_xfmr-000028_sec,0.748,under
bus_xfmr-000029_sec,0.7407,under
bus_xfmr-000030_sec,0.7464,under
bus_xfmr-000031_sec,0.7462,under
bus_xfmr-000032_sec,0.7452,under
bus_xfmr-000033_sec,0.7466,under
bus_xfmr-000034_sec,0.7343,under
bus_xfmr-000035_sec,0.7469,under
bus_xfmr-000036_sec,0.7301,under
bus_xfmr-000037_sec,0.3681,under
bus_xfmr-000038_sec,0.757,under
bus_xfmr-000039_sec,0.7359,under
bus_xfmr-000040_sec,0.7465,under
bus_xfmr-000041_sec,0.7284,under
bus_xfmr-000042_sec,0.7465,under
bus_xfmr-000043_sec,0.747,under
bus_xfmr-000044_sec,0.7472,under
bus_xfmr-000045_sec,0.7542,under
bus_xfmr-000046_sec,0.7185,under
bus_xfmr-000047_sec,0.7091,under
bus_xfmr-000048_sec,0.6953,under
bus_xfmr-000049_sec,0.474,under
bus_xfmr-000050_sec,0.6708,under
bus_xfmr-000051_sec,0.7067,under
bus_xfmr-000052_sec,0.7085,under
bus_xfmr-000053_sec,0.7123,under
bus_xfmr-000054_sec,0.7098,under
bus_xfmr-000055_sec,0.6218,under
bus_xfmr-000056_sec,0.708,under
bus_xfmr-000057_sec,0.7141,under
bus_xfmr-000058_sec,0.7115,under
bus_xfmr-000059_sec,0.7097,under
bus_xfmr-000060_sec,0.7117,under
bus_xfmr-000061_sec,0.2469,under
bus_xfmr-000062_sec,0.7153,under
bus_xfmr-000063_sec,0.7114,under
bus_xfmr-000064_sec,0.6523,under
bus_xfmr-000065_sec,0.5963,under
bus_xfmr-000066_sec,0.6548,under
bus_xfmr-000067_sec,0.2008,under
bus_xfmr-000068_sec,0.6788,under
bus_xfmr-000069_sec,0.7115,under
bus_xfmr-000070_sec,0.7089,under
bus_xfmr-000071_sec,0.7095,under
bus_xfmr-000072_sec,0.709,under
bus_xfmr-000073_sec,0.7078,under
bus_xfmr-000074_sec,0.709,under
bus_xfmr-000075_sec,0.7205,under
bus_xfmr-000076_sec,0.6818,under
bus_xfmr-000077_sec,0.4889,under
bus_xfmr-000078_sec,0.7121,under
bus_xfmr-000079_sec,0.7275,under
bus_xfmr-000080_sec,0.7073,under
bus_xfmr-000081_sec,0.6918,under
bus_xfmr-000082_sec,0.6967,under
bus_xfmr-000083_sec,0.701,under
bus_xfmr-000084_sec,0.5919,under
bus_xfmr-000085_sec,0.7123,under
bus_xfmr-000086_sec,0.6974,under
bus_xfmr-000087_sec,0.7078,under
bus_xfmr-000088_sec,0.7088,under
bus_xfmr-000089_sec,0.4793,under
bus_xfmr-000090_sec,0.697,under
bus_xfmr-000091_sec,0.6799,under
bus_xfmr-000092_sec,0.6769,under
bus_xfmr-000093_sec,0.6767,under
bus_xfmr-000094_sec,0.5407,under
bus_xfmr-000095_sec,0.3681,under
bus_xfmr-000096_sec,0.679,under
bus_xfmr-000097_sec,0.6801,under
bus_xfmr-000098_sec,0.6775,under
bus_xfmr-000099_sec,0.6788,under
bus_xfmr-000100_sec,0.6754,under
bus_xfmr-000101_sec,0.6754,under
bus_xfmr-000102_sec,0.6775,under
bus_xfmr-000103_sec,0.6771,under
bus_xfmr-000104_sec,0.2494,under
bus_xfmr-000105_sec,0.6759,under
bus_xfmr-000106_sec,0.6802,under
bus_xfmr-000107_sec,0.6773,under
bus_xfmr-000108_sec,0.6772,under
bus_xfmr-000109_sec,0.6267,under
bus_xfmr-000110_sec,0.6756,under
bus_xfmr-000111_sec,0.6798,under
bus_xfmr-000112_sec,0.2375,under
bus_xfmr-000113_sec,0.677,under
bus_xfmr-000114_sec,0.6762,under
bus_xfmr-000115_sec,0.6854,under
bus_xfmr-000116_sec,0.6864,under
bus_xfmr-000117_sec,0.5627,under
bus_xfmr-000118_sec,0.676,under
bus_xfmr-000119_sec,0.6774,under
bus_xfmr-000120_sec,0.667,under
bus_xfmr-000121_sec,0.6764,under
bus_xfmr-000122_sec,0.6614,under
bus_xfmr-000123_sec,0.6772,under
bus_xfmr-000124_sec,0.6768,under
bus_xfmr-000125_sec,0.6039,under
bus_xfmr-000126_sec,0.65,under
bus_xfmr-000127_sec,0.677,under
bus_xfmr-000128_sec,0.6804,under
bus_xfmr-000129_sec,0.6498,under
bus_xfmr-000130_sec,0.5971,under
bus_xfmr-000131_sec,0.4799,under
bus_xfmr-000132_sec,0.081,under
bus_xfmr-000133_sec,0.4265,under
bus_xfmr-000134_sec,0.6123,under
bus_xfmr-000135_sec,0.6811,under
bus_xfmr-000136_sec,0.6499,under
bus_xfmr-000137_sec,0.6512,under
bus_xfmr-000138_sec,0.6488,under
bus_xfmr-000139_sec,0.2126,under
bus_xfmr-000140_sec,0.6541,under
bus_xfmr-000141_sec,0.2097,under
bus_xfmr-000142_sec,0.6573,under
bus_xfmr-000143_sec,0.6477,under
bus_xfmr-000144_sec,0.6581,under
bus_xfmr-000145_sec,0.6513,under
bus_xfmr-000146_sec,0.6493,under
bus_xfmr-000147_sec,0.6491,under
bus_xfmr-000148_sec,0.6525,under
bus_xfmr-000149_sec,0.6496,under
bus_xfmr-000150_sec,0.6499,under
bus_xfmr-000151_sec,0.6479,under
bus_xfmr-000152_sec,0.6474,under
bus_xfmr-000153_sec,0.6493,under
bus_xfmr-000154_sec,0.6485,under
bus_xfmr-000155_sec,0.6592,under
bus_xfmr-000156_sec,0.6486,under
bus_xfmr-000157_sec,0.6509,under
bus_xfmr-000158_sec,0.6613,under
bus_xfmr-000159_sec,0.648,under
bus_xfmr-000160_sec,0.6552,under
bus_xfmr-000161_sec,0.6472,under
bus_xfmr-000162_sec,0.6477,under
bus_xfmr-000163_sec,0.6337,under
bus_xfmr-000164_sec,0.1353,under
bus_xfmr-000165_sec,0.6456,under
bus_xfmr-000166_sec,0.6373,under
bus_xfmr-000167_sec,0.6474,under
bus_xfmr-000168_sec,0.6474,under
bus_xfmr-000169_sec,0.6511,under
bus_xfmr-000170_sec,0.6579,under
bus_xfmr-000171_sec,0.6529,under
bus_xfmr-000172_sec,0.6526,under
bus_xfmr-000173_sec,0.4621,under
bus_xfmr-000174_sec,0.6366,under
bus_xfmr-000175_sec,0.6008,under
bus_xfmr-000176_sec,0.5556,under
bus_xfmr-000177_sec,0.6487,under
bus_xfmr-000178_sec,0.35,under
bus_xfmr-000179_sec,0.1166,under
bus_xfmr-000180_sec,0.1376,under
bus_xfmr-000181_sec,0.6104,under
bus_xfmr-000182_sec,0.626,under
bus_xfmr-000183_sec,0.636,under
bus_xfmr-000184_sec,0.038,under
bus_xfmr-000185_sec,0.6138,under
bus_xfmr-000186_sec,0.2853,under
bus_xfmr-000187_sec,0.4112,under
bus_xfmr-000188_sec,0.6306,under
bus_xfmr-000189_sec,0.6264,under
bus_xfmr-000190_sec,0.6275,under
bus_xfmr-000191_sec,0.6259,under
bus_xfmr-000192_sec,0.6275,under
bus_xfmr-000193_sec,0.6278,under
bus_xfmr-000194_sec,0.6329,under
bus_xfmr-000195_sec,0.6195,under
bus_xfmr-000196_sec,0.6295,under
bus_xfmr-000197_sec,0.6266,under
bus_xfmr-000198_sec,0.132,under
bus_xfmr-000199_sec,0.6372,under
bus_xfmr-000200_sec,0.6274,under
bus_xfmr-000201_sec,0.6261,under
bus_xfmr-000202_sec,0.6336,under
bus_xfmr-000203_sec,0.5784,under
bus_xfmr-000204_sec,0.6373,under
bus_xfmr-000205_sec,0.6281,under
bus_xfmr-000206_sec,0.6269,under
bus_xfmr-000207_sec,0.6263,under
bus_xfmr-000208_sec,0.6302,under
bus_xfmr-000209_sec,0.6277,under
bus_xfmr-000210_sec,0.6367,under
bus_xfmr-000211_sec,0.6261,under
bus_xfmr-000212_sec,0.6284,under
bus_xfmr-000213_sec,0.1601,under
bus_xfmr-000214_sec,0.6261,under
bus_xfmr-000215_sec,0.6264,under
bus_xfmr-000216_sec,0.6158,under
bus_xfmr-000217_sec,0.5854,under
bus_xfmr-000218_sec,0.6278,under
bus_xfmr-000219_sec,0.6146,under
bus_xfmr-000220_sec,0.6271,under
bus_xfmr-000221_sec,0.6149,under
bus_xfmr-000222_sec,0.6265,under
bus_xfmr-000223_sec,0.6182,under
bus_xfmr-000224_sec,0.6253,under
bus_xfmr-000225_sec,0.5988,under
bus_xfmr-000226_sec,0.6074,under
bus_xfmr-000227_sec,0.6094,under
bus_xfmr-000228_sec,0.5663,under
bus_xfmr-000229_sec,0.5914,under
bus_xfmr-000230_sec,0.4079,under
bus_xfmr-000231_sec,0.6092,under
bus_xfmr-000232_sec,0.6117,under
bus_xfmr-000233_sec,0.5943,under
bus_xfmr-000234_sec,0.6081,under
bus_xfmr-000235_sec,0.6074,under
bus_xfmr-000236_sec,0.5869,under
bus_xfmr-000237_sec,0.6084,under
bus_xfmr-000238_sec,0.6099,under
bus_xfmr-000239_sec,0.6004,under
bus_xfmr-000240_sec,0.5618,under
bus_xfmr-000241_sec,0.6016,under
bus_xfmr-000242_sec,0.6077,under
bus_xfmr-000243_sec,0.5598,under
bus_xfmr-000244_sec,0.6082,under
bus_xfmr-000245_sec,0.3634,under
bus_xfmr-000246_sec,0.6075,under
bus_xfmr-000247_sec,0.537,under
bus_xfmr-000248_sec,0.5791,under
bus_xfmr-000249_sec,0.598,under
bus_xfmr-000250_sec,0.6087,under
bus_xfmr-000251_sec,0.6014,under
bus_xfmr-000252_sec,0.5976,under
bus_xfmr-000253_sec,0.5582,under
bus_xfmr-000254_sec,0.6089,under
bus_xfmr-000255_sec,0.6097,under
bus_xfmr-000256_sec,0.6078,under
bus_xfmr-000257_sec,0.5725,under
bus_xfmr-000258_sec,0.609,under
bus_xfmr-000259_sec,0.6093,under
bus_xfmr-000260_sec,0.5767,under
bus_xfmr-000261_sec,0.609,under
bus_xfmr-000262_sec,0.6075,under
bus_xfmr-000263_sec,0.6086,under
bus_xfmr-000264_sec,0.6092,under
bus_xfmr-000265_sec,0.6143,under
bus_xfmr-000266_sec,0.5329,under
bus_xfmr-000267_sec,0.5813,under
bus_xfmr-000268_sec,0.1737,under
bus_xfmr-000269_sec,0.6092,under
bus_xfmr-000270_sec,0.6087,under
bus_xfmr-000271_sec,0.5999,under
bus_xfmr-000272_sec,0.4669,under
bus_xfmr-000273_sec,0.5615,under
bus_xfmr-000274_sec,0.5838,under
bus_xfmr-000275_sec,0.3104,under
bus_xfmr-000276_sec,0.5991,under
bus_xfmr-000277_sec,0.6032,under
bus_xfmr-000278_sec,0.6011,under
bus_xfmr-000279_sec,0.598,under
bus_xfmr-000280_sec,0.6042,under
bus_xfmr-000281_sec,0.5999,under
bus_xfmr-000282_sec,0.6001,under
bus_xfmr-000283_sec,0.5994,under
bus_xfmr-000284_sec,0.2473,under
bus_xfmr-000285_sec,0.5987,under
bus_xfmr-000286_sec,0.5991,under
bus_xfmr-000287_sec,0.6049,under
bus_xfmr-000288_sec,0.599,under
bus_xfmr-000289_sec,0.575,under
bus_xfmr-000290_sec,0.6087,under
bus_xfmr-000291_sec,0.6,under
bus_xfmr-000292_sec,0.5129,under
bus_xfmr-000293_sec,0.6008,under
bus_xfmr-000294_sec,0.3507,under
bus_xfmr-000295_sec,0.5979,under
bus_xfmr-000296_sec,0.5977,under
bus_xfmr-000297_sec,0.3428,under
bus_xfmr-000298_sec,0.5981,under
bus_xfmr-000299_sec,0.3727,under
bus_xfmr-000300_sec,0.5985,under
bus_xfmr-000301_sec,0.5982,under
bus_xfmr-000302_sec,0.5996,under
bus_xfmr-000303_sec,0.5988,under
bus_xfmr-000304_sec,0.6012,under
bus_xfmr-000305_sec,0.595,under
bus_xfmr-000306_sec,0.5993,under
bus_xfmr-000307_sec,0.5987,under
bus_xfmr-000308_sec,0.5985,under
bus_xfmr-000309_sec,0.6012,under
bus_xfmr-000310_sec,0.5934,under
bus_xfmr-000311_sec,0.4132,under
bus_xfmr-000312_sec,0.6024,under
bus_xfmr-000313_sec,0.6071,under
bus_xfmr-000314_sec,0.5991,under
bus_xfmr-000315_sec,0.5919,under
bus_xfmr-000316_sec,0.5954,under
bus_xfmr-000317_sec,0.5573,under
bus_xfmr-000318_sec,0.5929,under
bus_xfmr-000319_sec,0.5945,under
bus_xfmr-000320_sec,0.0795,under
bus_xfmr-000321_sec,0.5983,under
bus_xfmr-000322_sec,0.5934,under
bus_xfmr-000323_sec,0.2795,under
bus_xfmr-000324_sec,0.5932,under
bus_xfmr-000325_sec,0.594,under
bus_xfmr-000326_sec,0.5954,under
bus_xfmr-000327_sec,0.1954,under
bus_xfmr-000328_sec,0.5767,under
bus_xfmr-000329_sec,0.5404,under
bus_xfmr-000330_sec,0.5949,under
bus_xfmr-000331_sec,0.5819,under
bus_xfmr-000332_sec,0.2499,under
bus_xfmr-000333_sec,0.5929,under
bus_xfmr-000334_sec,0.5926,under
bus_xfmr-000335_sec,0.6006,under
bus_xfmr-000336_sec,0.5931,under
bus_xfmr-000337_sec,0.603,under
bus_xfmr-000338_sec,0.3705,under
bus_xfmr-000339_sec,0.5945,under
bus_xfmr-000340_sec,0.5878,under
bus_xfmr-000341_sec,0.6012,under
bus_xfmr-000342_sec,0.585,under
bus_xfmr-000343_sec,0.5926,under
bus_xfmr-000344_sec,0.5931,under
bus_xfmr-000345_sec,0.5756,under
bus_xfmr-000346_sec,0.5962,under
bus_xfmr-000347_sec,0.0879,under
bus_xfmr-000348_sec,0.5935,under
bus_xfmr-000349_sec,0.4951,under
bus_xfmr-000350_sec,0.5546,under
bus_xfmr-000351_sec,0.5931,under
bus_xfmr-000352_sec,0.2765,under
bus_xfmr-000353_sec,0.2542,under
bus_xfmr-000354_sec,0.3893,under
bus_xfmr-000355_sec,0.5753,under
bus_xfmr-000356_sec,0.5958,under
bus_xfmr-000357_sec,0.6019,under
bus_xfmr-000358_sec,0.5927,under
bus_xfmr-000359_sec,0.5925,under
bus_xfmr-000360_sec,0.5516,under
bus_xfmr-000361_sec,0.5921,under
bus_xfmr-000362_sec,0.1531,under
bus_xfmr-000363_sec,0.5964,under
bus_xfmr-000364_sec,0.594,under
bus_xfmr-000365_sec,0.7468,under
bus_xfmr-000366_sec,0.7471,under
bus_xfmr-000367_sec,0.6665,under
bus_xfmr-000368_sec,0.7463,under
bus_xfmr-000369_sec,0.6093,under
bus_xfmr-000370_sec,0.7519,under
bus_xfmr-000371_sec,0.746,under
bus_xfmr-000372_sec,0.63,under
bus_xfmr-000373_sec,0.5427,under
bus_xfmr-000374_sec,0.613,under
bus_xfmr-000375_sec,0.7476,under
bus_xfmr-000376_sec,0.7408,under
bus_xfmr-000377_sec,0.7455,under
bus_xfmr-000378_sec,0.7483,under
bus_xfmr-000379_sec,0.7413,under
bus_xfmr-000380_sec,0.7516,under
bus_xfmr-000381_sec,0.7462,under
bus_xfmr-000382_sec,0.7431,under
bus_xfmr-000383_sec,0.7476,under
bus_xfmr-000384_sec,0.7145,under
bus_xfmr-000385_sec,0.7178,under
bus_xfmr-000386_sec,0.7074,under
bus_xfmr-000387_sec,0.7138,under
bus_xfmr-000388_sec,0.7018,under
bus_xfmr-000389_sec,0.7154,under
bus_xfmr-000390_sec,0.7131,under
bus_xfmr-000391_sec,0.7214,under
bus_xfmr-000392_sec,0.7203,under
bus_xfmr-000393_sec,0.649,under
bus_xfmr-000394_sec,0.714,under
bus_xfmr-000395_sec,0.7158,under
bus_xfmr-000396_sec,0.7077,under
bus_xfmr-000397_sec,0.7136,under
bus_xfmr-000398_sec,0.0294,under
bus_xfmr-000399_sec,0.7137,under
bus_xfmr-000400_sec,0.6716,under
bus_xfmr-000401_sec,0.2513,under
bus_xfmr-000402_sec,0.7018,under
bus_xfmr-000403_sec,0.6858,under
bus_xfmr-000404_sec,0.2524,under
bus_xfmr-000405_sec,0.6947,under
bus_xfmr-000406_sec,0.6964,under
bus_xfmr-000407_sec,0.687,under
bus_xfmr-000408_sec,0.6851,under
bus_xfmr-000409_sec,0.6415,under
bus_xfmr-000410_sec,0.6852,under
bus_xfmr-000411_sec,0.6868,under
bus_xfmr-000412_sec,0.6051,under
bus_xfmr-000413_sec,0.6875,under
bus_xfmr-000414_sec,0.6873,under
bus_xfmr-000415_sec,0.6643,under
bus_xfmr-000416_sec,0.6871,under
bus_xfmr-000417_sec,0.6864,under
bus_xfmr-000418_sec,0.6854,under
bus_xfmr-000419_sec,0.2286,under
bus_xfmr-000420_sec,0.685,under
bus_xfmr-000421_sec,0.6862,under
bus_xfmr-000422_sec,0.6644,under
bus_xfmr-000423_sec,0.6527,under
bus_xfmr-000424_sec,0.6472,under
bus_xfmr-000425_sec,0.6616,under
bus_xfmr-000426_sec,0.661,under
bus_xfmr-000427_sec,0.6625,under
bus_xfmr-000428_sec,0.4561,under
bus_xfmr-000429_sec,0.6636,under
bus_xfmr-000430_sec,0.661,under
bus_xfmr-000431_sec,0.6711,under
bus_xfmr-000432_sec,0.6382,under
bus_xfmr-000433_sec,0.6609,under
bus_xfmr-000434_sec,0.6675,under
bus_xfmr-000435_sec,0.6627,under
bus_xfmr-000436_sec,0.3515,under
bus_xfmr-000437_sec,0.6785,under
bus_xfmr-000438_sec,0.1872,under
bus_xfmr-000439_sec,0.6622,under
bus_xfmr-000440_sec,0.6604,under
bus_xfmr-000441_sec,0.6467,under
bus_xfmr-000442_sec,0.6466,under
bus_xfmr-000443_sec,0.6545,under
bus_xfmr-000444_sec,0.6465,under
bus_xfmr-000445_sec,0.2499,under
bus_xfmr-000446_sec,0.6412,under
bus_xfmr-000447_sec,0.646,under
bus_xfmr-000448_sec,0.3317,under
bus_xfmr-000449_sec,0.6466,under
bus_xfmr-000450_sec,0.6284,under
bus_xfmr-000451_sec,0.6469,under
bus_xfmr-000452_sec,0.6417,under
bus_xfmr-000453_sec,0.655,under
bus_xfmr-000454_sec,0.6461,under
bus_xfmr-000455_sec,0.646,under
bus_xfmr-000456_sec,0.6442,under
bus_xfmr-000457_sec,0.6366,under
bus_xfmr-000458_sec,0.6537,under
bus_xfmr-000459_sec,0.645,under
bus_xfmr-000460_sec,0.3481,under
bus_xfmr-000461_sec,0.6313,under
bus_xfmr-000462_sec,0.6323,under
bus_xfmr-000463_sec,0.4668,under
bus_xfmr-000464_sec,0.6319,under
bus_xfmr-000465_sec,0.6318,under
bus_xfmr-000466_sec,0.2313,under
bus_xfmr-000467_sec,0.3324,under
bus_xfmr-000468_sec,0.6314,under
bus_xfmr-000469_sec,0.6328,under
bus_xfmr-000470_sec,0.6313,under
bus_xfmr-000471_sec,0.621,under
bus_xfmr-000472_sec,0.6338,under
bus_xfmr-000473_sec,0.6289,under
bus_xfmr-000474_sec,0.0894,under
bus_xfmr-000475_sec,0.6184,under
bus_xfmr-000476_sec,0.618,under
bus_xfmr-000477_sec,0.4346,under
bus_xfmr-000478_sec,0.6312,under
bus_xfmr-000479_sec,0.2017,under
bus_xfmr-000480_sec,0.6166,under
bus_xfmr-000481_sec,0.6267,under
bus_xfmr-000482_sec,0.4231,under
bus_xfmr-000483_sec,0.6259,under
bus_xfmr-000484_sec,0.2343,under
bus_xfmr-000485_sec,0.532,under
bus_xfmr-000486_sec,0.6283,under
bus_xfmr-000487_sec,0.6264,under
bus_xfmr-000488_sec,0.6096,under
bus_xfmr-000489_sec,0.6336,under
bus_xfmr-000490_sec,0.6314,under
